% C3X cascade run 108 — SU2 低 Re SST。forge と同一 .geo・同一 BC。
% 目的: 負圧面層流域の h 過大が forge 固有かモデル共通かの切り分け (plan §5.1 #28)。
% 壁は **一様 566 K** (実測平均)。forge 側も同じ一様壁温で回して交絡を避ける。
SOLVER= RANS
KIND_TURB_MODEL= SST
KIND_TRANS_MODEL= LM
MATH_PROBLEM= DIRECT
SYSTEM_MEASUREMENTS= SI
RESTART_SOL= YES
SOLUTION_FILENAME= restart.dat
READ_BINARY_RESTART= YES

FLUID_MODEL= STANDARD_AIR
GAMMA_VALUE= 1.4
GAS_CONSTANT= 287.0
VISCOSITY_MODEL= SUTHERLAND
MU_REF= 1.716E-5
MU_T_REF= 273.15
SUTHERLAND_CONSTANT= 110.4
PRANDTL_LAM= 0.72
PRANDTL_TURB= 0.90

INIT_OPTION= TD_CONDITIONS
FREESTREAM_OPTION= TEMPERATURE_FS
MACH_NUMBER= 0.167
FREESTREAM_PRESSURE= 313642.0
FREESTREAM_TEMPERATURE= 782.0
FREESTREAM_TURBULENCEINTENSITY= 0.065
FREESTREAM_TURB2LAMVISCRATIO= 10.0

INLET_TYPE= TOTAL_CONDITIONS
MARKER_INLET= ( inlet, 786.0, 319500.0, 1.0, 0.0, 0.0 )
MARKER_OUTLET= ( outlet, 185064.4 )
MARKER_ISOTHERMAL= ( wall, 566.0 )
MARKER_PERIODIC= ( per_low, per_up, 0.0, 0.0, 0.0, 0.0, 0.0, 0.0, 0.0, 0.11773, 0.0 )
MARKER_PLOTTING= ( wall )
MARKER_MONITORING= ( wall )
MARKER_ANALYZE= ( outlet )
MARKER_ANALYZE_AVERAGE= MASSFLUX

NUM_METHOD_GRAD= WEIGHTED_LEAST_SQUARES
CONV_NUM_METHOD_FLOW= ROE
MUSCL_FLOW= YES
SLOPE_LIMITER_FLOW= VENKATAKRISHNAN
VENKAT_LIMITER_COEFF= 0.05
TIME_DISCRE_FLOW= EULER_IMPLICIT
CONV_NUM_METHOD_TURB= SCALAR_UPWIND
MUSCL_TURB= NO
TIME_DISCRE_TURB= EULER_IMPLICIT

CFL_NUMBER= 5.0
CFL_ADAPT= NO
LINEAR_SOLVER= FGMRES
LINEAR_SOLVER_PREC= ILU
LINEAR_SOLVER_ERROR= 1E-6
LINEAR_SOLVER_ITER= 15

ITER= 10000
CONV_FIELD= RMS_DENSITY
CONV_RESIDUAL_MINVAL= -12
CONV_STARTITER= 100
SCREEN_OUTPUT= ( INNER_ITER, RMS_DENSITY, RMS_ENERGY, RMS_TKE, RMS_DISSIPATION, TOTAL_HEATFLUX )
HISTORY_OUTPUT= ( ITER, RMS_RES, HEAT, FLOW_COEFF )
OUTPUT_WRT_FREQ= 2000

MESH_FORMAT= SU2
MESH_FILENAME= fluid_c3x_smooth.su2
TABULAR_FORMAT= CSV
OUTPUT_FILES= ( RESTART, PARAVIEW, SURFACE_CSV )
VOLUME_OUTPUT= ( COORDINATES, SOLUTION, PRIMITIVE, HEAT )
