% case/57 T3B 遷移平板 — SU2 8.5 SST + LM。forge と同一メッシュ・同一条件
% U=69.44 m/s (M 0.2), Re/m = 6.27e5 (T3B の 9.4 m/s, rho 1.2, mu 1.8e-5 を粘性で合わせた), 入口 Tu 6.5 %, mu_t/mu 100
SOLVER= RANS
KIND_TURB_MODEL= SST
SST_OPTIONS= V2003m
KIND_TRANS_MODEL= LM
MATH_PROBLEM= DIRECT
RESTART_SOL= NO
SYSTEM_MEASUREMENTS= SI
MACH_NUMBER= 0.2
AOA= 0.0
FREESTREAM_PRESSURE= 101325.0
FREESTREAM_TEMPERATURE= 300.0
INIT_OPTION= TD_CONDITIONS
FREESTREAM_OPTION= TEMPERATURE_FS
FREESTREAM_TURBULENCEINTENSITY= 0.065
FREESTREAM_TURB2LAMVISCRATIO= 100.0
REF_DIMENSIONALIZATION= DIMENSIONAL
FLUID_MODEL= IDEAL_GAS
GAMMA_VALUE= 1.4
GAS_CONSTANT= 287.0
VISCOSITY_MODEL= CONSTANT_VISCOSITY
MU_CONSTANT= 1.3033e-4
CONDUCTIVITY_MODEL= CONSTANT_PRANDTL
PRANDTL_LAM= 0.72
PRANDTL_TURB= 0.9
INLET_TYPE= TOTAL_CONDITIONS
MARKER_INLET= ( inlet, 302.4, 104190.0, 1.0, 0.0, 0.0 )
MARKER_OUTLET= ( outlet, 101325.0 )
MARKER_SYM= ( sym, top )
MARKER_HEATFLUX= ( wall, 0.0 )
MARKER_PLOTTING= ( wall )
MARKER_MONITORING= ( wall )
NUM_METHOD_GRAD= WEIGHTED_LEAST_SQUARES
CONV_NUM_METHOD_FLOW= ROE
MUSCL_FLOW= YES
SLOPE_LIMITER_FLOW= VENKATAKRISHNAN
VENKAT_LIMITER_COEFF= 0.05
CONV_NUM_METHOD_TURB= SCALAR_UPWIND
MUSCL_TURB= NO
TIME_DISCRE_FLOW= EULER_IMPLICIT
TIME_DISCRE_TURB= EULER_IMPLICIT
CFL_NUMBER= 10.0
CFL_ADAPT= NO
LINEAR_SOLVER= FGMRES
LINEAR_SOLVER_PREC= ILU
LINEAR_SOLVER_ERROR= 1E-6
LINEAR_SOLVER_ITER= 20
ITER= 30000
CONV_FIELD= RMS_DENSITY
CONV_RESIDUAL_MINVAL= -12
CONV_STARTITER= 500
MESH_FILENAME= mesh.su2
MESH_FORMAT= SU2
TABULAR_FORMAT= CSV
CONV_FILENAME= history
VOLUME_FILENAME= flow
SURFACE_FILENAME= surface_flow
RESTART_FILENAME= restart_flow
OUTPUT_WRT_FREQ= 5000
SCREEN_OUTPUT= ( INNER_ITER, RMS_DENSITY, RMS_ENERGY, RMS_TKE, RMS_DISSIPATION, RMS_INTERMITTENCY, RMS_RE_THETA_T, DRAG )
HISTORY_OUTPUT= ( ITER, RMS_RES, AERO_COEFF )
VOLUME_OUTPUT= ( COORDINATES, SOLUTION, PRIMITIVE )
OUTPUT_FILES= ( RESTART_ASCII, PARAVIEW, SURFACE_CSV )
