% case/48 超音速冷却壁平板 — SU2 v8.5 RANS-SST (forge A-plain / B-plain と同一メッシュ・同一 BC・同一物性)
SOLVER= RANS
KIND_TURB_MODEL= SST
SST_OPTIONS= V2003m
MATH_PROBLEM= DIRECT
RESTART_SOL= NO
SYSTEM_MEASUREMENTS= SI
MACH_NUMBER= 4.19
AOA= 0.0
FREESTREAM_PRESSURE= 5037.4
FREESTREAM_TEMPERATURE= 283.0
INIT_OPTION= TD_CONDITIONS
FREESTREAM_OPTION= TEMPERATURE_FS
FREESTREAM_TURBULENCEINTENSITY= 0.0050046
FREESTREAM_TURB2LAMVISCRATIO= 10.135
REF_DIMENSIONALIZATION= DIMENSIONAL
FLUID_MODEL= IDEAL_GAS
GAMMA_VALUE= 1.4
GAS_CONSTANT= 287.0
VISCOSITY_MODEL= SUTHERLAND
MU_REF= 1.716e-5
MU_T_REF= 273.0
SUTHERLAND_CONSTANT= 111.0
CONDUCTIVITY_MODEL= CONSTANT_PRANDTL
PRANDTL_LAM= 0.72
PRANDTL_TURB= 0.9
MARKER_SUPERSONIC_INLET= ( inlet, 283.0, 5037.4, 1412.9025, 0.0, 0.0 )
MARKER_SUPERSONIC_OUTLET= ( outlet )
MARKER_SYM= ( sym, top )
MARKER_HEATFLUX= ( wall, 0.0 )
MARKER_PLOTTING= ( wall )
MARKER_MONITORING= ( wall )
NUM_METHOD_GRAD= WEIGHTED_LEAST_SQUARES
CONV_NUM_METHOD_FLOW= ROE
MUSCL_FLOW= YES
SLOPE_LIMITER_FLOW= VENKATAKRISHNAN
VENKAT_LIMITER_COEFF= 0.05
CONV_NUM_METHOD_TURB= SCALAR_UPWIND
MUSCL_TURB= NO
TIME_DISCRE_FLOW= EULER_IMPLICIT
TIME_DISCRE_TURB= EULER_IMPLICIT
CFL_NUMBER= 1.0
CFL_ADAPT= YES
CFL_ADAPT_PARAM= ( 0.5, 1.2, 0.5, 30.0, 0.001, 50 )
LINEAR_SOLVER= FGMRES
LINEAR_SOLVER_PREC= ILU
LINEAR_SOLVER_ERROR= 1E-6
LINEAR_SOLVER_ITER= 20
ITER= 40000
CONV_FIELD= RMS_DENSITY
CONV_RESIDUAL_MINVAL= -12
CONV_STARTITER= 500
MESH_FILENAME= mesh.su2
MESH_FORMAT= SU2
TABULAR_FORMAT= CSV
CONV_FILENAME= history
VOLUME_FILENAME= flow
SURFACE_FILENAME= surface_flow
RESTART_FILENAME= restart_flow
OUTPUT_WRT_FREQ= 5000
SCREEN_OUTPUT= ( INNER_ITER, RMS_DENSITY, RMS_ENERGY, RMS_TKE, RMS_DISSIPATION, CFL_NUMBER, DRAG, TOTAL_HEATFLUX )
HISTORY_OUTPUT= ( ITER, RMS_RES, AERO_COEFF, HEAT )
VOLUME_OUTPUT= ( COORDINATES, SOLUTION, PRIMITIVE )
OUTPUT_FILES= ( RESTART_ASCII, PARAVIEW, SURFACE_CSV )
